[General]

[Config FatTree]
network = Fat_tree
sim-time-limit = 1.0000026s

[Config TianheRouter]
network = Tianhe_Router
sim-time-limit = 1.0000026s
