[General]

[Config FatTree]
network = Fat_tree
sim-time-limit = 1.00004s

[Config TianheRouter]
network = Tianhe_Router
sim-time-limit = 1.000100s
